Circuit: * C:\Users\chadl\Desktop\UAV_Quad\UAV_altium\PWM_Signal_Amplifier_Circuit.asc

Limiting rise time of source v§pwm_3v3 to 0.0001
Limiting fall time of source v§pwm_3v3 to 0.0001
Direct Newton iteration failed to find .op point.  (Use ".option noopiter" to skip.)
Starting Gmin stepping
Gmin = 10
Gmin = 1.07374
Gmin = 0.115292
Gmin = 0.0123794
Gmin = 0.00132923
Gmin = 0.000142725
Gmin = 1.5325e-005
Gmin = 1.6455e-006
Gmin = 1.76685e-007
Gmin = 1.89714e-008
Gmin = 2.03704e-009
Gmin = 2.18725e-010
Gmin = 2.34854e-011
Gmin = 2.52173e-012
Gmin = 2.70769e-013
Gmin = 0
Gmin stepping succeeded in finding the operating point.


Date: Mon Feb 08 13:36:46 2021
Total elapsed time: 0.153 seconds.

tnom = 27
temp = 27
method = modified trap
totiter = 10540
traniter = 9925
tranpoints = 2845
accept = 2344
rejected = 501
matrix size = 84
fillins = 53
solver = Normal
Matrix Compiler1: 7.81 KB object code size  1.3/0.7/[0.4]
Matrix Compiler2: 8.21 KB object code size  0.7/0.9/[0.4]

